power-flow-agent/results/ieee14/2026-09-23/gpt-5.6-sol/plan_act_nogate__matched/traces/17_case14-multistep-026-s0.transcript.txt
==============================================================================
TRANSCRIPT  plan_act_nogate  |  openrouter:openai/gpt-5.6-sol  |  case14  |  case14-multistep-026-s0  run 0
==============================================================================
date: 2026-09-23   seed: 0   difficulty: multistep   tool variant: load_split

[system]   (hash 7da5e2a37ec4, from methods/plan_act_nogate/method.json prompt_files)
You are a power system power-flow analysis assistant. You help the user complete power system analysis tasks from natural-language requests.

## What you can do
You complete tasks by calling tool functions:
1. Load an IEEE standard test system (14, 30, 57, 118, 300 buses)
2. Run AC power flow
3. Modify the load at a bus and re-solve
4. Disconnect or reconnect a line and re-solve
5. Query the network status
6. Run an N-1 contingency analysis (disconnect branches one at a time and rank the worst cases)
7. Generate remedial-action suggestions (what-if load shedding or voltage adjustment) to reduce violation risk

## Key rules
- Never fabricate any numerical result. Every voltage, power, loss, or loading value must come from a tool return value.
- If a tool reports an error or a non-converged power flow, say so explicitly and do not report numbers for that state.
- If the request is ambiguous, state the interpretation you are using.
- Bus and line identifiers in the request are MATPOWER 1-based ids; pass them to the tools as given, unless the request itself states a different indexing convention for that identifier (e.g. "(0-based)"), in which case convert it to the MATPOWER 1-based id before calling any tool.
- After a network modification, re-solve before reporting any value.
- Always reply in English.

## Reply format
After each analysis, reply in this structure:
1. One-sentence summary
2. Key numbers (total load, total generation, total losses, voltage range) taken from the tool outputs
3. Violations, if any
4. Suggested next step

[user]   (complete message, stored at run time)
Load the 14-bus test case (case14), disconnect the line between bus 2 and bus 4, then rerun the power flow, then report the bus with the lowest voltage magnitude.

[tools available to the model]   (function-calling schema, --tool-variant load_split; enum values and defaults as sent)
  load_case(case_name: string* in {case14, case30, case57, case118, case300})  Load IEEE test case.
  run_powerflow()  Run power flow on current case.
  disconnect_line(from_bus: integer*, to_bus: integer*)  Disconnect line/branch between two buses and recompute.
  reconnect_line(from_bus: integer*, to_bus: integer*)  Reconnect line/branch between two buses and recompute.
  get_most_loaded_branch()  Get most loaded branch.
  run_n1_contingency(top_k: integer (default 5), criteria: string in {max_violations, max_overload, min_voltage} (default max_violations), max_candidates: integer (default 0))  Run N-1 contingency analysis.
  recommend_remedial_actions(max_actions: integer (default 5), allow_load_shed: boolean (default True), allow_voltage_control: boolean (default True), include_best_comparison: boolean (default True))  Recommend remedial actions.
  apply_remedial_action(action_index: integer*, confirmed: boolean (default False))  Apply one remedial action by index.
  get_status()  Get current network status.
  generate_plot(plot_type: string* in {voltage_heatmap, flow_diagram, violation_overview, comparison})  Generate one plot.
  set_active_load(bus_id: integer*, p_mw: number*)  Set a bus's active load (MW) and recompute. Use this when the request states only an active-power value. This tool has no reactive-power argument: the bus's present reactive load is always left unchanged. If the request also states a reactive-power value, use set_load instead.
  set_load(bus_id: integer*, p_mw: number*, q_mvar: number*)  Set a bus's active and reactive load (MW, Mvar) and recompute. Use this only when the request states both values. If the request states only an active-power value, use set_active_load instead -- do not invent a reactive-power value here to fill this in.

[planner system prompt]   (hash 76ea681e520a; as assembled today from methods/plan_act; the planning call sends this plus the request)
You are the planner of a power-system analysis agent. You cannot call tools yourself. Given the user's request, output ONLY a JSON object of the form
{"plan": [{"tool": "<tool_name>", "args": {...}}, ...]}
listing, in execution order, every tool call needed to answer the request. Use only the tools below with exactly these argument names (* = required); where an argument lists allowed values, use one of them verbatim. Bus and line identifiers in the request are MATPOWER 1-based ids; pass them to the tools as given, unless the request itself states a different indexing convention for that identifier (e.g. "(0-based)"), in which case convert it to the MATPOWER 1-based id. Do not include explanations, markdown, or any text outside the JSON.

Available tools:
- load_case(case_name: string in {case14, case30, case57, case118, case300}*): Load IEEE test case.
- run_powerflow((none)): Run power flow on current case.
- disconnect_line(from_bus: integer*, to_bus: integer*): Disconnect line/branch between two buses and recompute.
- reconnect_line(from_bus: integer*, to_bus: integer*): Reconnect line/branch between two buses and recompute.
- get_most_loaded_branch((none)): Get most loaded branch.
- run_n1_contingency(top_k: integer, criteria: string in {max_violations, max_overload, min_voltage}, max_candidates: integer): Run N-1 contingency analysis.
- recommend_remedial_actions(max_actions: integer, allow_load_shed: boolean, allow_voltage_control: boolean, include_best_comparison: boolean): Recommend remedial actions.
- apply_remedial_action(action_index: integer*, confirmed: boolean): Apply one remedial action by index.
- get_status((none)): Get current network status.
- generate_plot(plot_type: string in {voltage_heatmap, flow_diagram, violation_overview, comparison}*): Generate one plot.
- set_active_load(bus_id: integer*, p_mw: number*): Set a bus's active load (MW) and recompute. Use this when the request states only an active-power value. This tool has no reactive-power argument: the bus's present reactive load is always left unchanged. If the request also states a reactive-power value, use set_load instead.
- set_load(bus_id: integer*, p_mw: number*, q_mvar: number*): Set a bus's active and reactive load (MW, Mvar) and recompute. Use this only when the request states both values. If the request states only an active-power value, use set_active_load instead -- do not invent a reactive-power value here to fill this in.

[planner output]
[
 {
  "tool": "load_case",
  "args": {
   "case_name": "case14"
  }
 },
 {
  "tool": "disconnect_line",
  "args": {
   "from_bus": 2,
   "to_bus": 4
  }
 },
 {
  "tool": "run_powerflow",
  "args": {}
 },
 {
  "tool": "get_status",
  "args": {}
 }
]

--- round 1 ---
[assistant]   (621 in / 116 out tokens, 2.9 s)
{"plan":[{"tool":"load_case","args":{"case_name":"case14"}},{"tool":"disconnect_line","args":{"from_bus":2,"to_bus":4}},{"tool":"run_powerflow","args":{}},{"tool":"get_status","args":{}}]}

--- round 2 ---
[tool load_case]   (gate: not applied)
{"case_name": "case14", "n_buses": 14, "n_generators": 5, "n_lines": 20, "n_loads": 11, "total_load_mw": 252.27691886542414, "total_gen_capacity_mw": 772.4000000000001}
[tool disconnect_line]   (gate: pass)
{"case_name": "case14", "converged": true, "bus_voltages": [{"bus_id": 1, "vm_pu": 1.06, "va_deg": 0.0, "is_violation": true, "violation_type": "overvoltage"}, {"bus_id": 2, "vm_pu": 1.0449999999999997, "va_deg": -4.2880027379393635, "is_violation": false, "violation_type": null}, {"bus_id": 3, "vm_pu": 1.0099999999999998, "va_deg": -13.752462410664865, "is_violation": false, "violation_type": null}, {"bus_id": 4, "vm_pu": 1.0084559489766285, "va_deg": -12.794960237085174, "is_violation": false, "violation_type": null}, {"bus_id": 5, "vm_pu": 1.0123724941093482, "va_deg": -10.40545861670212, "is_violation": false, "violation_type": null}, {"bus_id": 6, "vm_pu": 1.0699999999999998, "va_deg": -16.08632358257971, "is_violation": true, "violation_type": "overvoltage"}, {"bus_id": 7, "vm_pu": 1.0576483733742463, "va_deg": -15.617297783824016, "is_violation": true, "violation_type": "overvoltage"}, {"bus_id": 8, "vm_pu": 1.0900000000000003, "va_deg": -15.617297783824016, "is_violation": true, "violation_type": "overvoltage"}, {"bus_id": 9, "vm_pu": 1.0523854439534843, "va_deg": -17.07161712954454, "is_violation": true, "violation_type": "overvoltage"}, {"bus_id": 10, "vm_pu": 1.0476462809576146, "va_deg": -17.196002602077584, "is_violation": false, "violation_type": null}, {"bus_id": 11, "vm_pu": 1.0550793740982727, "va_deg": -16.774335903507186, "is_violation": true, "violation_type": "overvoltage"}, {"bus_id": 12, "vm_pu": 1.0549525316460955, "va_deg": -16.964461518662137, "is_violation": true, "violation_type": "overvoltage"}, {"bus_id": 13, "vm_pu": 1.0495847590453833, "va_deg": -17.068195379392137, "is_violation": false, "violation_type": null}, {"bus_id": 14, "vm_pu": 1.03236387127815, "va_deg": -18.116537272125594, "is_violation": false, "violation_type": null}], "line_flows": [{"line_id": 0, "from_bus": 1, "to_bus": 2, "p_from_mw": 135.91159796315796, "q_from_mvar": -15.369560181445074, "loading_percent": 1.3033911800669917, "is_violation": false}, {"line_id": 1, "from_bus": 1, "to_bus": 5, "p_from_mw": 89.07152613538753, "q_from_mvar": 6.206518627130593, "loading_percent": 0.8514069342208074, "is_violation": false}, {"line_id": 2, "from_bus": 2, "to_bus": 3, "p_from_mw": 88.77304361101714, "q_from_mvar": 2.2695521495260738, "loading_percent": 0.8583640259833134, "is_violation": false}, {"line_id": 3, "from_bus": 2, "to_bus": 4, "p_from_mw": 0.0, "q_from_mvar": 0.0, "loading_percent": 0.0, "is_violation": false}, {"line_id": 4, "from_bus": 2, "to_bus": 5, "p_from_mw": 65.38150878294142, "q_from_mvar": -0.22982442486125035, "loading_percent": 0.6319840772598878, "is_violation": false}, {"line_id": 5, "from_bus": 3, "to_bus": 4, "p_from_mw": -8.289481266623126, "q_from_mvar": 3.589957022574138, "loading_percent": 0.09618242612394444, "is_violation": false}, {"line_id": 6, "from_bus": 4, "to_bus": 5, "p_from_mw": -93.94451264006196, "q_from_mvar": 22.51162319931105, "loading_percent": 0.9676164820603292, "is_violation": false}, {"line_id": 7, "from_bus": 6, "to_bus": 11, "p_from_mw": 8.68706259530129, "q_from_mvar": 3.919300905561281, "loading_percent": 0.08996758538305459, "is_violation": false}, {"line_id": 8, "from_bus": 6, "to_bus": 12, "p_from_mw": 7.971496592556767, "q_from_mvar": 2.5157729146831116, "loading_percent": 0.0789111605244172, "is_violation": false}, {"line_id": 9, "from_bus": 6, "to_bus": 13, "p_from_mw": 18.565092249078713, "q_from_mvar": 7.467875135467987, "loading_percent": 0.18890580873727522, "is_violation": false}, {"line_id": 10, "from_bus": 9, "to_bus": 10, "p_from_mw": 4.428105053851906, "q_from_mvar": 4.238395291123038, "loading_percent": 0.05883323914770651, "is_violation": false}, {"line_id": 11, "from_bus": 9, "to_bus": 14, "p_from_mw": 9.027537496311076, "q_from_mvar": 3.615718226492246, "loading_percent": 0.09333968405584736, "is_violation": false}, {"line_id": 12, "from_bus": 10, "to_bus": 11, "p_from_mw": -5.040733284231124, "q_from_mvar": -1.8854568492827815, "loading_percent": 0.05188943550931577, "is_violation": false}, {"line_id": 13, "from_bus": 12, "to_bus": 13, "p_from_mw": 1.8613749402537034, "q_from_mvar": 0.7766712645725626, "loading_percent": 0.01931162790892213, "is_violation": false}, {"line_id": 14, "from_bus": 13, "to_bus": 14, "p_from_mw": 6.66505706112121, "q_from_mvar": 1.9721770900112103, "loading_percent": 0.06689241908028755, "is_violation": false}, {"line_id": 100000, "from_bus": 4, "to_bus": 7, "p_from_mw": 25.678785939836686, "q_from_mvar": -12.437799411047596, "loading_percent": 0.2857896242987363, "is_violation": false}, {"line_id": 100001, "from_bus": 4, "to_bus": 9, "p_from_mw": 14.684901948729632, "q_from_mvar": -1.6348520345806001, "loading_percent": 0.14799727730870427, "is_violation": false}, {"line_id": 100002, "from_bus": 5, "to_bus": 6, "p_from_mw": 45.65130816945663, "q_from_mvar": 9.263177282328192, "loading_percent": 0.46477115172163863, "is_violation": false}, {"line_id": 100003, "from_bus": 7, "to_bus": 8, "p_from_mw": 1.4257369061071643e-14, "q_from_mvar": -19.424720565847085, "loading_percent": 0.18551467915461153, "is_violation": false}, {"line_id": 100004, "from_bus": 7, "to_bus": 9, "p_from_mw": 25.678785939079123, "q_from_mvar": 5.385754327380816, "loading_percent": 0.25057973652937743, "is_violation": false}], "total_generation_mw": 266.8621972410839, "total_load_mw": 252.27691886542414, "total_loss_mw": 14.585278397023178, "voltage_violations": [{"bus_id": 1, "vm_pu": 1.06, "va_deg": 0.0, "is_violation": true, "violation_type": "overvoltage"}, {"bus_id": 6, "vm_pu": 1.0699999999999998, "va_deg": -16.08632358257971, "is_violation": true, "violation_type": "overvoltage"}, {"bus_id": 7, "vm_pu": 1.0576483733742463, "va_deg": -15.617297783824016, "is_violation": true, "violation_type": "overvoltage"}, {"bus_id": 8, "vm_pu": 1.0900000000000003, "va_deg": -15.617297783824016, "is_violation": true, "violation_type": "overvoltage"}, {"bus_id": 9, "vm_pu": 1.0523854439534843, "va_deg": -17.07161712954454, "is_violation": true, "violation_type": "overvoltage"}, {"bus_id": 11, "vm_pu": 1.0550793740982727, "va_deg": -16.774335903507186, "is_violation": true, "violation_type": "overvoltage"}, {"bus_id": 12, "vm_pu": 1.0549525316460955, "va_deg": -16.964461518662137, "is_violation": true, "violation_type": "overvoltage"}], "thermal_violations": [], "summary_text": "", "solver_backend": "pandapower", "llm_prompt": null, "llm_response": null}
[tool run_powerflow]   (gate: pass)
{"case_name": "case14", "converged": true, "bus_voltages": [{"bus_id": 1, "vm_pu": 1.06, "va_deg": 0.0, "is_violation": true, "violation_type": "overvoltage"}, {"bus_id": 2, "vm_pu": 1.0449999999999997, "va_deg": -4.2880027379393635, "is_violation": false, "violation_type": null}, {"bus_id": 3, "vm_pu": 1.0099999999999998, "va_deg": -13.752462410664865, "is_violation": false, "violation_type": null}, {"bus_id": 4, "vm_pu": 1.0084559489766285, "va_deg": -12.794960237085174, "is_violation": false, "violation_type": null}, {"bus_id": 5, "vm_pu": 1.0123724941093482, "va_deg": -10.40545861670212, "is_violation": false, "violation_type": null}, {"bus_id": 6, "vm_pu": 1.0699999999999998, "va_deg": -16.08632358257971, "is_violation": true, "violation_type": "overvoltage"}, {"bus_id": 7, "vm_pu": 1.0576483733742463, "va_deg": -15.617297783824016, "is_violation": true, "violation_type": "overvoltage"}, {"bus_id": 8, "vm_pu": 1.0900000000000003, "va_deg": -15.617297783824016, "is_violation": true, "violation_type": "overvoltage"}, {"bus_id": 9, "vm_pu": 1.0523854439534843, "va_deg": -17.07161712954454, "is_violation": true, "violation_type": "overvoltage"}, {"bus_id": 10, "vm_pu": 1.0476462809576146, "va_deg": -17.196002602077584, "is_violation": false, "violation_type": null}, {"bus_id": 11, "vm_pu": 1.0550793740982727, "va_deg": -16.774335903507186, "is_violation": true, "violation_type": "overvoltage"}, {"bus_id": 12, "vm_pu": 1.0549525316460955, "va_deg": -16.964461518662137, "is_violation": true, "violation_type": "overvoltage"}, {"bus_id": 13, "vm_pu": 1.0495847590453833, "va_deg": -17.068195379392137, "is_violation": false, "violation_type": null}, {"bus_id": 14, "vm_pu": 1.03236387127815, "va_deg": -18.116537272125594, "is_violation": false, "violation_type": null}], "line_flows": [{"line_id": 0, "from_bus": 1, "to_bus": 2, "p_from_mw": 135.91159796315796, "q_from_mvar": -15.369560181445074, "loading_percent": 1.3033911800669917, "is_violation": false}, {"line_id": 1, "from_bus": 1, "to_bus": 5, "p_from_mw": 89.07152613538753, "q_from_mvar": 6.206518627130593, "loading_percent": 0.8514069342208074, "is_violation": false}, {"line_id": 2, "from_bus": 2, "to_bus": 3, "p_from_mw": 88.77304361101714, "q_from_mvar": 2.2695521495260738, "loading_percent": 0.8583640259833134, "is_violation": false}, {"line_id": 3, "from_bus": 2, "to_bus": 4, "p_from_mw": 0.0, "q_from_mvar": 0.0, "loading_percent": 0.0, "is_violation": false}, {"line_id": 4, "from_bus": 2, "to_bus": 5, "p_from_mw": 65.38150878294142, "q_from_mvar": -0.22982442486125035, "loading_percent": 0.6319840772598878, "is_violation": false}, {"line_id": 5, "from_bus": 3, "to_bus": 4, "p_from_mw": -8.289481266623126, "q_from_mvar": 3.589957022574138, "loading_percent": 0.09618242612394444, "is_violation": false}, {"line_id": 6, "from_bus": 4, "to_bus": 5, "p_from_mw": -93.94451264006196, "q_from_mvar": 22.51162319931105, "loading_percent": 0.9676164820603292, "is_violation": false}, {"line_id": 7, "from_bus": 6, "to_bus": 11, "p_from_mw": 8.68706259530129, "q_from_mvar": 3.919300905561281, "loading_percent": 0.08996758538305459, "is_violation": false}, {"line_id": 8, "from_bus": 6, "to_bus": 12, "p_from_mw": 7.971496592556767, "q_from_mvar": 2.5157729146831116, "loading_percent": 0.0789111605244172, "is_violation": false}, {"line_id": 9, "from_bus": 6, "to_bus": 13, "p_from_mw": 18.565092249078713, "q_from_mvar": 7.467875135467987, "loading_percent": 0.18890580873727522, "is_violation": false}, {"line_id": 10, "from_bus": 9, "to_bus": 10, "p_from_mw": 4.428105053851906, "q_from_mvar": 4.238395291123038, "loading_percent": 0.05883323914770651, "is_violation": false}, {"line_id": 11, "from_bus": 9, "to_bus": 14, "p_from_mw": 9.027537496311076, "q_from_mvar": 3.615718226492246, "loading_percent": 0.09333968405584736, "is_violation": false}, {"line_id": 12, "from_bus": 10, "to_bus": 11, "p_from_mw": -5.040733284231124, "q_from_mvar": -1.8854568492827815, "loading_percent": 0.05188943550931577, "is_violation": false}, {"line_id": 13, "from_bus": 12, "to_bus": 13, "p_from_mw": 1.8613749402537034, "q_from_mvar": 0.7766712645725626, "loading_percent": 0.01931162790892213, "is_violation": false}, {"line_id": 14, "from_bus": 13, "to_bus": 14, "p_from_mw": 6.66505706112121, "q_from_mvar": 1.9721770900112103, "loading_percent": 0.06689241908028755, "is_violation": false}, {"line_id": 100000, "from_bus": 4, "to_bus": 7, "p_from_mw": 25.678785939836686, "q_from_mvar": -12.437799411047596, "loading_percent": 0.2857896242987363, "is_violation": false}, {"line_id": 100001, "from_bus": 4, "to_bus": 9, "p_from_mw": 14.684901948729632, "q_from_mvar": -1.6348520345806001, "loading_percent": 0.14799727730870427, "is_violation": false}, {"line_id": 100002, "from_bus": 5, "to_bus": 6, "p_from_mw": 45.65130816945663, "q_from_mvar": 9.263177282328192, "loading_percent": 0.46477115172163863, "is_violation": false}, {"line_id": 100003, "from_bus": 7, "to_bus": 8, "p_from_mw": 1.4257369061071643e-14, "q_from_mvar": -19.424720565847085, "loading_percent": 0.18551467915461153, "is_violation": false}, {"line_id": 100004, "from_bus": 7, "to_bus": 9, "p_from_mw": 25.678785939079123, "q_from_mvar": 5.385754327380816, "loading_percent": 0.25057973652937743, "is_violation": false}], "total_generation_mw": 266.8621972410839, "total_load_mw": 252.27691886542414, "total_loss_mw": 14.585278397023178, "voltage_violations": [{"bus_id": 1, "vm_pu": 1.06, "va_deg": 0.0, "is_violation": true, "violation_type": "overvoltage"}, {"bus_id": 6, "vm_pu": 1.0699999999999998, "va_deg": -16.08632358257971, "is_violation": true, "violation_type": "overvoltage"}, {"bus_id": 7, "vm_pu": 1.0576483733742463, "va_deg": -15.617297783824016, "is_violation": true, "violation_type": "overvoltage"}, {"bus_id": 8, "vm_pu": 1.0900000000000003, "va_deg": -15.617297783824016, "is_violation": true, "violation_type": "overvoltage"}, {"bus_id": 9, "vm_pu": 1.0523854439534843, "va_deg": -17.07161712954454, "is_violation": true, "violation_type": "overvoltage"}, {"bus_id": 11, "vm_pu": 1.0550793740982727, "va_deg": -16.774335903507186, "is_violation": true, "violation_type": "overvoltage"}, {"bus_id": 12, "vm_pu": 1.0549525316460955, "va_deg": -16.964461518662137, "is_violation": true, "violation_type": "overvoltage"}], "thermal_violations": [], "summary_text": "", "solver_backend": "pandapower", "llm_prompt": null, "llm_response": null}
[tool get_status]   (gate: not applied)
{"active_case": "case14", "network_info": {"case_name": "case14", "n_buses": 14, "n_generators": 5, "n_lines": 20, "n_loads": 11, "total_load_mw": 252.27691886542414, "total_gen_capacity_mw": 772.4000000000001}, "has_last_result": true, "last_result_summary": {"converged": true, "total_load_mw": 252.27691886542414, "total_generation_mw": 266.8621972410839, "total_loss_mw": 14.585278397023178, "n_voltage_violations": 7, "n_thermal_violations": 0, "solver_backend": "pandapower"}}

--- round 3 ---
[assistant final]   (6095 in / 244 out tokens, 3.6 s)
The AC power flow converged after disconnecting line 2–4; **bus 4 has the lowest voltage magnitude at 1.00846 p.u.**

**Key numbers**
- Total load: **252.2769 MW**
- Total generation: **266.8622 MW**
- Total losses: **14.5853 MW**
- Voltage range: **1.00846 p.u. (bus 4) to 1.09000 p.u. (bus 8)**

**Violations**
- Overvoltage violations at buses **1, 6, 7, 8, 9, 11, and 12**
- Thermal violations: **None**

**Suggested next step**
- Review voltage-control settings or run remedial-action analysis to address the reported overvoltages.
